/*--------------------------------*- C++ -*----------------------------------*\
| =========                 |                                                 |
| \\      /  F ield         | OpenFOAM: The Open Source CFD Toolbox           |
|  \\    /   O peration     | Version:  v1906                                 |
|   \\  /    A nd           | Web:      www.OpenFOAM.com                      |
|    \\/     M anipulation  |                                                 |
\*---------------------------------------------------------------------------*/
FoamFile
{
    version     2.0;
    format      ascii;
    class       volScalarField;
    object      T;
}
// * * * * * * * * * * * * * * * * * * * * * * * * * * * * * * * * * * * * * //

dimensions      [0 0 0 1 0 0 0];

internalField   uniform 278;

boundaryField
{

	inlet
	{
	type            fixedValue;
	value		    uniform 278;
	}

	outlet
	{
	type            zeroGradient;
	}

	bottom
	{
	type            fixedValue;
	value		   	uniform 268;
	}

	top
	{
	type            zeroGradient;
	}
		
	frontAndBack
	{
        type            empty;
	}
}

// ************************************************************************* //
